SOLUTION 0
    pH        7
    units     mol/L
    Mg        0.001
    Cl        0.002
    C           0
    Ca          0

SELECTED_OUTPUT
-reset      false
-water      true
-pe         true
-high_precision true
-pH true
-totals C Ca Cl Mg
-charge_balance	true
-alkalinity  	true
-equilibrium_phases Calcite Dolomite(ord)

USER_PUNCH
headings  O  H  C(4) C(-4) H2O dens vol_sol
-start
10 punch tot("O"), tot("H"), tot("C(4)"), tot("C(-4)"), mol("H2O"), RHO, SOLN_VOL
-end 